testData/IEEE300/baseCases/IEEE300Bus_modified_noHVDC_v2_scalepercent_20.raw
0,   100.00, 30, 0, 1,  60.00     / PSS(R)E 30 RAW created by rawd30  WED, MAY 13 2020  14:37
 00/00/01                      100.0  0    0
 0
     1,'1           ', 115.0000,1,     0.000,     0.000,   1,   1,1.02021,   7.7693,   1
     2,'2           ', 115.0000,1,     0.000,     0.000,   1,   1,1.03124,   9.8564,   1
     3,'3           ', 230.0000,1,     0.000,     0.000,   1,   1,0.98782,   8.5579,   1
     4,'4           ', 345.0000,1,     0.000,     0.000,   1,   1,1.01870,   6.2088,   1
     5,'5           ', 115.0000,1,     0.000,     0.000,   1,   1,1.00901,   6.2132,   1
     6,'6           ', 115.0000,1,     0.000,     0.000,   1,   1,1.02524,   8.9577,   1
     7,'7           ', 230.0000,1,     0.000,     0.000,   1,   1,0.98457,   7.9949,   1
     8,'8           ', 115.0000,1,     0.000,     0.000,   1,   1,1.01529,   3.2241,   1
     9,'9           ', 115.0000,1,     0.000,     0.000,   1,   1,0.99509,   3.9239,   1
    10,'10          ', 230.0000,1,     0.000,     0.000,   1,   1,1.02050,   2.0996,   1
    11,'11          ', 115.0000,1,     0.000,     0.000,   1,   1,1.00286,   3.3971,   1
    12,'12          ', 230.0000,1,     0.000,     0.000,   1,   1,0.99078,   6.8000,   1
    13,'13          ', 115.0000,1,     0.000,     0.000,   1,   1,0.99480,  -0.2672,   1
    14,'14          ', 115.0000,1,     0.000,     0.000,   1,   1,0.98391,  -5.5125,   1
    15,'15          ', 115.0000,1,     0.000,     0.000,   1,   1,1.01849, -10.1239,   1
    16,'16          ', 345.0000,1,     0.000,     0.000,   1,   1,1.01205,  -2.7844,   1
    17,'17          ', 115.0000,1,     0.000,     0.000,   1,   1,1.05023, -15.8689,   1
    19,'19          ', 230.0000,1,     0.000,     0.000,   1,   1,0.97294,   1.7018,   1
    20,'20          ', 115.0000,1,     0.000,     0.000,   1,   1,1.00099,  -2.5816,   1
    21,'21          ', 230.0000,1,     0.000,     0.000,   1,   1,0.96898,   2.3717,   1
    22,'22          ', 115.0000,1,     0.000,     0.000,   1,   1,0.99198,  -1.9361,   1
    23,'23          ', 115.0000,1,     0.000,     0.000,   1,   1,1.04834,   5.3667,   1
    24,'24          ', 230.0000,1,     0.000,     0.000,   1,   1,1.00190,   7.8335,   1
    25,'25          ', 115.0000,1,     0.000,     0.000,   1,   1,1.01531,   2.3499,   1
    26,'26          ', 115.0000,1,     0.000,     0.000,   1,   1,0.98537,  -1.5314,   1
    27,'27          ', 115.0000,1,     0.000,     0.000,   1,   1,0.95995,  -5.4537,   1
    33,'33          ', 115.0000,1,     0.000,     0.000,   1,   1,1.00314, -14.3907,   1
    34,'34          ', 345.0000,1,     0.000,     0.000,   1,   1,1.02027,  -9.2900,   1
    35,'35          ', 115.0000,1,     0.000,     0.000,   1,   1,0.97169, -31.2726,   1
    36,'36          ', 230.0000,1,     0.000,     0.000,   1,   1,0.98741, -27.3515,   1
    37,'37          ', 115.0000,1,     0.000,     0.000,   1,   1,1.00084, -13.4058,   1
    38,'38          ', 115.0000,1,     0.000,     0.000,   1,   1,0.99826, -15.0713,   1
    39,'39          ', 345.0000,1,     0.000,     0.000,   1,   1,1.03583,  -6.6283,   1
    40,'40          ', 115.0000,1,     0.000,     0.000,   1,   1,1.00117, -15.3371,   1
    41,'41          ', 115.0000,1,     0.000,     0.000,   1,   1,1.00891, -12.4109,   1
    42,'42          ', 345.0000,1,     0.000,     0.000,   1,   1,1.02425,  -8.6740,   1
    43,'43          ', 115.0000,1,     0.000,     0.000,   1,   1,0.97480, -20.5158,   1
    44,'44          ', 115.0000,1,     0.000,     0.000,   1,   1,0.98518, -21.4210,   1
    45,'45          ', 230.0000,1,     0.000,     0.000,   1,   1,0.99847, -18.0416,   1
    46,'46          ', 345.0000,1,     0.000,     0.000,   1,   1,1.01084, -14.0562,   1
    47,'47          ', 115.0000,1,     0.000,     0.000,   1,   1,0.95134, -28.3712,   1
    48,'48          ', 115.0000,1,     0.000,     0.000,   1,   1,0.98390, -19.5369,   1
    49,'49          ', 115.0000,1,     0.000,     0.000,   1,   1,1.04264,  -3.1366,   1
    51,'51          ', 115.0000,1,     0.000,     0.000,   1,   1,1.00772,  -9.6504,   1
    52,'52          ', 115.0000,1,     0.000,     0.000,   1,   1,0.97414, -14.6104,   1
    53,'53          ', 115.0000,1,     0.000,     0.000,   1,   1,0.96912, -21.6081,   1
    54,'54          ', 115.0000,1,     0.000,     0.000,   1,   1,0.98115, -20.0156,   1
    55,'55          ', 115.0000,1,     0.000,     0.000,   1,   1,0.99704, -15.3016,   1
    57,'57          ', 115.0000,1,     0.000,     0.000,   1,   1,1.02537, -11.1622,   1
    58,'58          ', 115.0000,1,     0.000,     0.000,   1,   1,0.97761,  -9.2391,   1
    59,'59          ', 115.0000,1,     0.000,     0.000,   1,   1,0.96329,  -8.5266,   1
    60,'60          ', 230.0000,1,     0.000,     0.000,   1,   1,1.00674, -12.5926,   1
    61,'61          ', 115.0000,1,     0.000,     0.000,   1,   1,0.97872,  -6.3498,   1
    62,'62          ', 230.0000,1,     0.000,     0.000,   1,   1,1.00792,  -3.8179,   1
    63,'63          ', 115.0000,1,     0.000,     0.000,   1,   1,0.95829, -24.1496,   1
    64,'64          ', 230.0000,1,     0.000,     0.000,   1,   1,0.93994, -18.5234,   1
    69,'69          ', 115.0000,1,     0.000,     0.000,   1,   1,0.94496, -31.0725,   1
    70,'70          ', 115.0000,1,     0.000,     0.000,   1,   1,0.92648, -42.9134,   1
    71,'71          ', 115.0000,1,     0.000,     0.000,   1,   1,0.96430, -36.3340,   1
    72,'72          ', 115.0000,1,     0.000,     0.000,   1,   1,0.96025, -33.3806,   1
    73,'73          ', 115.0000,1,     0.000,     0.000,   1,   1,0.96021, -31.2967,   1
    74,'74          ', 230.0000,1,     0.000,     0.000,   1,   1,0.97491, -26.6907,   1
    76,'76          ', 115.0000,1,     0.000,     0.000,   1,   1,0.96319, -32.4580,   1
    77,'77          ', 115.0000,1,     0.000,     0.000,   1,   1,0.97814, -30.2403,   1
    78,'78          ', 115.0000,1,     0.000,     0.000,   1,   1,0.98417, -29.1427,   1
    79,'79          ', 115.0000,1,     0.000,     0.000,   1,   1,0.97122, -30.2607,   1
    80,'80          ', 115.0000,1,     0.000,     0.000,   1,   1,0.97864, -30.0463,   1
    81,'81          ', 345.0000,1,     0.000,     0.000,   1,   1,1.01625, -22.4778,   1
    84,'84          ', 115.0000,1,     0.000,     0.000,   1,   1,1.02498, -20.7425,   1
    85,'85          ', 230.0000,1,     0.000,     0.000,   1,   1,0.98035, -21.6997,   1
    86,'86          ', 230.0000,1,     0.000,     0.000,   1,   1,0.98032, -17.3197,   1
    87,'87          ', 230.0000,1,     0.000,     0.000,   1,   1,0.97825,  -9.2894,   1
    88,'88          ', 230.0000,1,     0.000,     0.000,   1,   1,0.99780, -25.2157,   1
    89,'89          ', 115.0000,1,     0.000,     0.000,   1,   1,1.02070, -13.3657,   1
    90,'90          ', 115.0000,1,     0.000,     0.000,   1,   1,1.01285, -13.4769,   1
    91,'91          ', 115.0000,1,     0.000,     0.000,   1,   1,1.05199, -11.3721,   1
    92,'92          ', 115.0000,1,     0.000,     0.000,   1,   1,1.05200,  -7.4500,   1
    94,'94          ', 115.0000,1,     0.000,     0.000,   1,   1,0.98210, -11.3451,   1
    97,'97          ', 115.0000,1,     0.000,     0.000,   1,   1,1.01354, -16.0766,   1
    98,'98          ', 115.0000,1,     0.000,     0.000,   1,   1,1.00000, -17.9054,   1
    99,'99          ', 115.0000,1,     0.000,     0.000,   1,   1,0.98791, -24.8925,   1
   100,'100         ', 115.0000,1,     0.000,     0.000,   1,   1,1.00195, -17.6223,   1
   102,'102         ', 115.0000,1,     0.000,     0.000,   1,   1,0.99487, -18.5743,   1
   103,'103         ', 115.0000,1,     0.000,     0.000,   1,   1,1.02289, -14.5905,   1
   104,'104         ', 115.0000,1,     0.000,     0.000,   1,   1,0.99077, -21.1930,   1
   105,'105         ', 115.0000,1,     0.000,     0.000,   1,   1,1.01382, -15.6663,   1
   107,'107         ', 115.0000,1,     0.000,     0.000,   1,   1,0.99844, -19.5048,   1
   108,'108         ', 115.0000,1,     0.000,     0.000,   1,   1,0.98999, -24.9154,   1
   109,'109         ', 115.0000,1,     0.000,     0.000,   1,   1,0.95747, -31.9478,   1
   110,'110         ', 115.0000,1,     0.000,     0.000,   1,   1,0.95715, -30.2646,   1
   112,'112         ', 115.0000,1,     0.000,     0.000,   1,   1,0.95446, -35.0931,   1
   113,'113         ', 115.0000,1,     0.000,     0.000,   1,   1,0.94409, -31.1418,   1
   114,'114         ', 115.0000,1,     0.000,     0.000,   1,   1,0.95721, -34.9563,   1
   115,'115         ', 115.0000,1,     0.000,     0.000,   2,   2,0.88216,   8.6544,   1
   116,'116         ', 115.0000,1,     0.000,     0.000,   2,   2,1.03275,  17.0698,   1
   117,'117         ', 115.0000,1,     0.000,   390.000,   2,   2,0.86601,  25.4997,   1
   118,'118         ', 115.0000,1,     0.000,     0.000,   2,   2,0.85995,  26.9129,   1
   119,'119         ', 115.0000,1,     0.000,     0.000,   2,   2,1.04334,  44.6094,   1
   120,'120         ', 115.0000,1,     0.000,    66.000,   2,   2,1.00893,  38.7120,   1
   121,'121         ', 115.0000,1,     0.000,     0.000,   2,   2,0.80577,  12.4441,   1
   122,'122         ', 115.0000,1,     0.000,     0.000,   2,   2,0.86752,   5.9711,   1
   123,'123         ', 115.0000,1,     0.000,     0.000,   2,   2,0.95810,   0.6641,   1
   124,'124         ', 115.0000,1,     0.000,     0.000,   2,   2,1.02327,  13.3090,   1
   125,'125         ', 115.0000,1,     0.000,     0.000,   2,   2,1.01025, -10.6557,   1
   126,'126         ', 115.0000,1,     0.000,     0.000,   2,   2,0.95904,  -5.1757,   1
   127,'127         ', 230.0000,1,     0.000,     0.000,   2,   2,0.97470, -10.5815,   1
   128,'128         ', 230.0000,1,     0.000,     0.000,   2,   2,0.98529,  -7.5500,   1
   129,'129         ', 230.0000,1,     0.000,     0.000,   2,   2,0.98497,  -6.6004,   1
   130,'130         ', 230.0000,1,     0.000,     0.000,   2,   2,1.00461,   7.0852,   1
   131,'131         ', 230.0000,1,     0.000,     0.000,   2,   2,0.97576,   7.7949,   1
   132,'132         ', 230.0000,1,     0.000,     0.000,   2,   2,0.99306,   4.7674,   1
   133,'133         ', 230.0000,1,     0.000,     0.000,   2,   2,0.98975, -10.2260,   1
   134,'134         ', 230.0000,1,     0.000,     0.000,   2,   2,1.00569,  -9.3443,   1
   135,'135         ', 230.0000,1,     0.000,     0.000,   2,   2,1.00331,  -9.3418,   1
   136,'136         ', 230.0000,1,     0.000,     0.000,   2,   2,1.03745,  -2.4649,   1
   137,'137         ', 230.0000,1,     0.000,     0.000,   2,   2,1.03813,  -9.9476,   1
   138,'138         ', 230.0000,1,     0.000,     0.000,   2,   2,1.05495, -21.3113,   1
   139,'139         ', 115.0000,1,     0.000,     0.000,   2,   2,1.00164, -12.0339,   1
   140,'140         ', 230.0000,1,     0.000,     0.000,   2,   2,1.02982, -11.9755,   1
   141,'141         ', 230.0000,1,     0.000,     0.000,   2,   2,1.05099,  -7.3886,   1
   142,'142         ', 230.0000,1,     0.000,     0.000,   2,   2,0.99203,  -9.5899,   1
   143,'143         ', 230.0000,1,     0.000,     0.000,   2,   2,1.04348,  -0.4494,   1
   144,'144         ', 230.0000,1,     0.000,     0.000,   2,   2,1.00846,  -3.5561,   1
   145,'145         ', 230.0000,1,     0.000,     0.000,   2,   2,0.99103,  -6.3245,   1
   146,'146         ', 230.0000,1,     0.000,     0.000,   2,   2,1.05279,  -1.4712,   1
   147,'147         ', 230.0000,1,     0.000,     0.000,   2,   2,1.05280,   3.2917,   1
   148,'148         ', 230.0000,1,     0.000,     0.000,   2,   2,1.04801,  -5.1721,   1
   149,'149         ', 230.0000,1,     0.000,     0.000,   2,   2,1.07349,   0.7635,   1
   150,'150         ', 230.0000,1,     0.000,     0.000,   2,   2,0.97590,   8.1375,   1
   151,'151         ', 230.0000,1,     0.000,     0.000,   2,   2,0.99386,   5.4214,   1
   152,'152         ', 230.0000,1,     0.000,     0.000,   2,   2,1.05350,   6.4727,   1
   153,'153         ', 230.0000,1,     0.000,     0.000,   2,   2,1.04350,   6.9467,   1
   154,'154         ', 115.0000,1,     0.000,    41.400,   2,   2,0.96157,  -8.2325,   1
   155,'155         ', 230.0000,1,     0.000,     0.000,   2,   2,0.99808,   1.6443,   1
   156,'156         ', 115.0000,1,     0.000,     0.000,   2,   2,0.96299,  -0.3403,   1
   157,'157         ', 230.0000,1,     0.000,     0.000,   2,   2,0.88146,   8.3673,   1
   158,'158         ', 230.0000,1,     0.000,     0.000,   2,   2,0.91735,   8.0334,   1
   159,'159         ', 230.0000,1,     0.000,     0.000,   2,   2,0.86937,  13.6168,   1
   160,'160         ', 230.0000,1,     0.000,     0.000,   2,   2,0.96549,  10.8720,   1
   161,'161         ', 230.0000,1,     0.000,     0.000,   2,   2,1.02811,   4.7543,   1
   162,'162         ', 230.0000,1,     0.000,     0.000,   2,   2,0.95419,  16.6416,   1
   163,'163         ', 230.0000,1,     0.000,     0.000,   2,   2,1.01574,  -4.1021,   1
   164,'164         ', 230.0000,1,     0.000,  -254.400,   2,   2,0.94991,   5.1157,   1
   165,'165         ', 230.0000,1,     0.000,     0.000,   2,   2,0.97385,  26.6901,   1
   166,'166         ', 230.0000,1,     0.000,  -123.600,   2,   2,0.97993,  31.6297,   1
   167,'167         ', 230.0000,1,     0.000,     0.000,   2,   2,0.94305,  -9.6510,   1
   168,'168         ', 230.0000,1,     0.000,     0.000,   2,   2,0.98536,  -7.5824,   1
   169,'169         ', 230.0000,1,     0.000,     0.000,   2,   2,0.96592,  -9.5959,   1
   170,'170         ', 115.0000,1,     0.000,     0.000,   2,   2,0.92898,   0.8434,   1
   171,'171         ', 115.0000,1,     0.000,     0.000,   2,   2,0.98287, -15.6846,   1
   172,'172         ', 115.0000,1,     0.000,     0.000,   2,   2,1.00644, -15.0152,   1
   173,'173         ', 115.0000,1,     0.000,    63.600,   2,   2,0.94276, -22.9180,   1
   174,'174         ', 115.0000,1,     0.000,     0.000,   2,   2,1.05387, -10.6707,   1
   175,'175         ', 115.0000,1,     0.000,     0.000,   2,   2,0.93893, -15.3192,   1
   176,'176         ', 115.0000,1,     0.000,     0.000,   2,   2,1.05219,  -0.8536,   1
   177,'177         ', 115.0000,1,     0.000,     0.000,   2,   2,1.00769,  -5.8168,   1
   178,'178         ', 115.0000,1,     0.000,     0.000,   2,   2,0.90576, -14.3935,   1
   179,'179         ', 115.0000,1,     0.000,    54.000,   2,   2,0.93234, -17.7942,   1
   180,'180         ', 115.0000,1,     0.000,     0.000,   2,   2,0.95455,  -9.9880,   1
   181,'181         ', 230.0000,1,     0.000,     0.000,   2,   2,1.04324, -10.5680,   1
   182,'182         ', 230.0000,1,     0.000,     0.000,   2,   2,1.03117, -12.8582,   1
   183,'183         ', 115.0000,1,     0.000,     0.000,   2,   2,0.96976,   2.8610,   1
   184,'184         ', 230.0000,1,     0.000,     0.000,   2,   2,1.03091,  -7.8677,   1
   185,'185         ', 230.0000,1,     0.000,     0.000,   2,   2,1.05219,  -4.8309,   1
   186,'186         ', 230.0000,1,     0.000,     0.000,   2,   2,1.06496,  -5.9951,   1
   187,'187         ', 230.0000,1,     0.000,     0.000,   2,   2,1.06495,  -7.2317,   1
   188,'188         ', 230.0000,1,     0.000,     0.000,   2,   2,1.04598,  -9.7641,   1
   189,'189         ',  66.0000,1,     0.000,     0.000,   3,   3,0.98446, -31.0347,   1
   190,'190         ', 345.0000,1,     0.000,  -180.000,   3,   3,1.05508, -24.0485,   1
   191,'191         ', 230.0000,1,     0.000,     0.000,   3,   3,1.04339,  19.7719,   1
   192,'192         ', 230.0000,1,     0.000,     0.000,   3,   3,0.87635, -11.0072,   1
   193,'192         ',  66.0000,1,     0.000,     0.000,   3,   3,0.97325, -31.6796,   1
   194,'194         ', 345.0000,1,     0.000,     0.000,   3,   3,1.03438, -22.5462,   1
   195,'195         ', 345.0000,1,     0.000,     0.000,   3,   3,1.02436, -24.5148,   1
   196,'196         ', 115.0000,1,     0.000,     0.000,   3,   3,0.95615, -30.0075,   1
   197,'197         ', 115.0000,1,     0.000,     0.000,   3,   3,0.98146, -28.1425,   1
   198,'198         ', 115.0000,1,     0.000,     0.000,   3,   3,1.01499, -24.4025,   1
   199,'199         ', 115.0000,1,     0.000,     0.000,   3,   3,0.93677, -30.9929,   1
   200,'200         ', 115.0000,1,     0.000,     0.000,   3,   3,0.93995, -30.8302,   1
   201,'201         ',  66.0000,1,     0.000,     0.000,   1,   1,0.94572, -33.5836,   1
   202,'202         ',  66.0000,1,     0.000,     0.000,   3,   3,0.97761, -30.1347,   1
   203,'203         ', 115.0000,1,     0.000,     0.000,   3,   3,0.99772, -26.5195,   1
   204,'204         ',  66.0000,1,     0.000,     0.000,   3,   3,0.94543, -31.7710,   1
   205,'205         ',  66.0000,1,     0.000,     0.000,   3,   3,0.96306, -31.9121,   1
   206,'206         ',  66.0000,1,     0.000,     0.000,   3,   3,0.98122, -33.4158,   1
   207,'207         ',  66.0000,1,     0.000,     0.000,   1,   1,0.99781, -33.4710,   1
   208,'208         ',  66.0000,1,     0.000,     0.000,   3,   3,0.97765, -31.7490,   1
   209,'209         ',  66.0000,1,     0.000,     0.000,   3,   3,0.98811, -30.7456,   1
   210,'210         ', 115.0000,1,     0.000,     0.000,   3,   3,0.96849, -28.7640,   1
   211,'211         ', 115.0000,1,     0.000,     0.000,   3,   3,0.99200, -27.6807,   1
   212,'212         ', 138.0000,1,     0.000,     0.000,   3,   3,1.00347, -26.6266,   1
   213,'213         ',  16.5000,1,     0.000,     0.000,   3,   3,1.00999, -13.2928,   1
   214,'214         ', 138.0000,1,     0.000,     0.000,   3,   3,0.98849, -20.4085,   1
   215,'215         ', 138.0000,1,     0.000,     0.000,   3,   3,0.97799, -23.6935,   1
   216,'216         ', 138.0000,1,     0.000,     0.000,   3,   3,0.96155, -26.4434,   1
   217,'217         ', 138.0000,1,     0.000,     0.000,   3,   3,1.01353, -25.9327,   1
   218,'218         ', 138.0000,1,     0.000,     0.000,   3,   3,0.99942, -26.4351,   1
...
 0 /End of Bus data, Begin Load data
     1,'1 ',1,   1,   1,   108.000,    58.800,     0.000,     0.000,     0.000,     0.000,   1
     2,'1 ',1,   1,   1,    67.200,    18.000,     0.000,     0.000,     0.000,     0.000,   1
     3,'1 ',1,   1,   1,    24.000,     0.000,     0.000,     0.000,     0.000,     0.000,   1
     5,'1 ',1,   1,   1,   423.600,   156.000,     0.000,     0.000,     0.000,     0.000,   1
     6,'1 ',1,   1,   1,   144.000,    49.200,     0.000,     0.000,     0.000,     0.000,   1
     8,'1 ',1,   1,   1,    69.600,    16.800,     0.000,     0.000,     0.000,     0.000,   1
     9,'1 ',1,   1,   1,   115.200,    51.600,     0.000,     0.000,     0.000,     0.000,   1
    10,'1 ',1,   1,   1,   177.600,    39.600,     0.000,     0.000,     0.000,     0.000,   1
    11,'1 ',1,   1,   1,    99.600,    25.200,     0.000,     0.000,     0.000,     0.000,   1
    13,'1 ',1,   1,   1,    69.600,    12.000,     0.000,     0.000,     0.000,     0.000,   1
    14,'1 ',1,   1,   1,   192.000,    72.000,     0.000,     0.000,     0.000,     0.000,   1
    15,'1 ',1,   1,   1,   152.040,    27.600,     0.000,     0.000,     0.000,     0.000,   1
    17,'1 ',1,   1,   1,   673.200,   264.000,     0.000,     0.000,     0.000,     0.000,   1
    20,'1 ',1,   1,   1,   714.000,   144.000,     0.000,     0.000,     0.000,     0.000,   1
    21,'1 ',1,   1,   1,    92.400,     1.200,     0.000,     0.000,     0.000,     0.000,   1
    22,'1 ',1,   1,   1,    97.200,    27.600,     0.000,     0.000,     0.000,     0.000,   1
    23,'1 ',1,   1,   1,    25.200,     8.400,     0.000,     0.000,     0.000,     0.000,   1
    25,'1 ',1,   1,   1,    54.000,    14.400,     0.000,     0.000,     0.000,     0.000,   1
    26,'1 ',1,   1,   1,    33.600,    10.800,     0.000,     0.000,     0.000,     0.000,   1
    27,'1 ',1,   1,   1,    82.800,    15.600,     0.000,     0.000,     0.000,     0.000,   1
    33,'1 ',1,   1,   1,    66.000,     7.200,     0.000,     0.000,     0.000,     0.000,   1
    37,'1 ',1,   1,   1,   102.000,    38.400,     0.000,     0.000,     0.000,     0.000,   1
    38,'1 ',1,   1,   1,   186.000,    21.600,     0.000,     0.000,     0.000,     0.000,   1
    40,'1 ',1,   1,   1,    55.200,   -25.200,     0.000,     0.000,     0.000,     0.000,   1
    41,'1 ',1,   1,   1,   103.200,     0.000,     0.000,     0.000,     0.000,     0.000,   1
    43,'1 ',1,   1,   1,    46.800,    10.800,     0.000,     0.000,     0.000,     0.000,   1
    44,'1 ',1,   1,   1,   234.000,    34.800,     0.000,     0.000,     0.000,     0.000,   1
    47,'1 ',1,   1,   1,    69.600,    14.160,     0.000,     0.000,     0.000,     0.000,   1
    48,'1 ',1,   1,   1,    49.200,    22.800,     0.000,     0.000,     0.000,     0.000,   1
    49,'1 ',1,   1,   1,   110.400,    31.200,     0.000,     0.000,     0.000,     0.000,   1
    51,'1 ',1,   1,   1,    -6.000,     6.000,     0.000,     0.000,     0.000,     0.000,   1
    52,'1 ',1,   1,   1,    73.200,    33.600,     0.000,     0.000,     0.000,     0.000,   1
    53,'1 ',1,   1,   1,    82.800,     3.600,     0.000,     0.000,     0.000,     0.000,   1
    54,'1 ',1,   1,   1,    12.000,     1.200,     0.000,     0.000,     0.000,     0.000,   1
    55,'1 ',1,   1,   1,    26.400,    12.000,     0.000,     0.000,     0.000,     0.000,   1
    57,'1 ',1,   1,   1,   117.600,    24.000,     0.000,     0.000,     0.000,     0.000,   1
    58,'1 ',1,   1,   1,    16.800,     1.200,     0.000,     0.000,     0.000,     0.000,   1
    59,'1 ',1,   1,   1,   261.600,   127.200,     0.000,     0.000,     0.000,     0.000,   1
    61,'1 ',1,   1,   1,   272.400,   132.000,     0.000,     0.000,     0.000,     0.000,   1
    63,'1 ',1,   1,   1,    84.000,    36.000,     0.000,     0.000,     0.000,     0.000,   1
    70,'1 ',1,   1,   1,    67.200,    24.000,     0.000,     0.000,     0.000,     0.000,   1
    71,'1 ',1,   1,   1,   139.200,    45.600,     0.000,     0.000,     0.000,     0.000,   1
    72,'1 ',1,   1,   1,    68.400,    22.800,     0.000,     0.000,     0.000,     0.000,   1
    73,'1 ',1,   1,   1,   268.800,    85.200,     0.000,     0.000,     0.000,     0.000,   1
    76,'1 ',1,   1,   1,   249.600,   128.400,     0.000,     0.000,     0.000,     0.000,   1
    77,'1 ',1,   1,   1,    88.800,    33.600,     0.000,     0.000,     0.000,     0.000,   1
    79,'1 ',1,   1,   1,    57.600,    16.800,     0.000,     0.000,     0.000,     0.000,   1
    80,'1 ',1,   1,   1,    33.600,     8.400,     0.000,     0.000,     0.000,     0.000,   1
    84,'1 ',1,   1,   1,    44.400,    15.600,     0.000,     0.000,     0.000,     0.000,   1
    89,'1 ',1,   1,   1,    53.040,     0.000,     0.000,     0.000,     0.000,     0.000,   1
    90,'1 ',1,   1,   1,    79.200,     0.000,     0.000,     0.000,     0.000,     0.000,   1
    91,'1 ',1,   1,   1,    20.880,     0.000,     0.000,     0.000,     0.000,     0.000,   1
    92,'1 ',1,   1,   1,    18.960,     0.000,     0.000,     0.000,     0.000,     0.000,   1
    94,'1 ',1,   1,   1,    72.360,     0.000,     0.000,     0.000,     0.000,     0.000,   1
    97,'1 ',1,   1,   1,    47.880,     0.000,     0.000,     0.000,     0.000,     0.000,   1
    98,'1 ',1,   1,   1,    80.040,     0.000,     0.000,     0.000,     0.000,     0.000,   1
    99,'1 ',1,   1,   1,   100.200,     0.000,     0.000,     0.000,     0.000,     0.000,   1
   102,'1 ',1,   1,   1,    93.360,     0.000,     0.000,     0.000,     0.000,     0.000,   1
   103,'1 ',1,   1,   1,    38.400,     0.000,     0.000,     0.000,     0.000,     0.000,   1
   104,'1 ',1,   1,   1,    10.320,     0.000,     0.000,     0.000,     0.000,     0.000,   1
   105,'1 ',1,   1,   1,    59.520,     0.000,     0.000,     0.000,     0.000,     0.000,   1
   107,'1 ',1,   1,   1,     5.520,     0.000,     0.000,     0.000,     0.000,     0.000,   1
   108,'1 ',1,   1,   1,   134.520,     0.000,     0.000,     0.000,     0.000,     0.000,   1
   109,'1 ',1,   1,   1,    36.840,     0.000,     0.000,     0.000,     0.000,     0.000,   1
   110,'1 ',1,   1,   1,    75.600,     0.000,     0.000,     0.000,     0.000,     0.000,   1
   112,'1 ',1,   1,   1,    23.520,     0.000,     0.000,     0.000,     0.000,     0.000,   1
   113,'1 ',1,   1,   1,    31.440,     0.000,     0.000,     0.000,     0.000,     0.000,   1
   114,'1 ',1,   1,   1,    21.840,     0.000,     0.000,     0.000,     0.000,     0.000,   1
   118,'1 ',1,   2,   2,    16.920,   780.000,     0.000,     0.000,     0.000,     0.000,   1
   119,'1 ',1,   2,   2,   120.360,    41.280,     0.000,     0.000,     0.000,     0.000,   1
   121,'1 ',1,   2,   2,   642.000,    66.000,     0.000,     0.000,     0.000,     0.000,   1
   122,'1 ',1,   2,   2,   274.920,    14.160,     0.000,     0.000,     0.000,     0.000,   1
   123,'1 ',1,   2,   2,    93.600,     1.680,     0.000,     0.000,     0.000,     0.000,   1
   124,'1 ',1,   2,   2,   331.680,    71.160,     0.000,     0.000,     0.000,     0.000,   1
   125,'1 ',1,   2,   2,   617.760,    99.240,     0.000,     0.000,     0.000,     0.000,   1
   126,'1 ',1,   2,   2,    69.480,     6.120,     0.000,     0.000,     0.000,     0.000,   1
   127,'1 ',1,   2,   2,   456.960,    44.400,     0.000,     0.000,     0.000,     0.000,   1
   135,'1 ',1,   2,   2,   203.040,    49.920,     0.000,     0.000,     0.000,     0.000,   1
   136,'1 ',1,   2,   2,    66.240,    21.840,     0.000,     0.000,     0.000,     0.000,   1
   137,'1 ',1,   2,   2,   328.320,   119.760,     0.000,     0.000,     0.000,     0.000,   1
   138,'1 ',1,   2,   2,   992.040,   162.240,     0.000,     0.000,     0.000,     0.000,   1
   139,'1 ',1,   2,   2,   714.000,    99.960,     0.000,     0.000,     0.000,     0.000,   1
   140,'1 ',1,   2,   2,   465.240,   137.640,     0.000,     0.000,     0.000,     0.000,   1
   141,'1 ',1,   2,   2,   174.000,    69.600,     0.000,     0.000,     0.000,     0.000,   1
   142,'1 ',1,   2,   2,    67.800,    29.400,     0.000,     0.000,     0.000,     0.000,   1
   143,'1 ',1,   2,   2,   107.400,    42.600,     0.000,     0.000,     0.000,     0.000,   1
   145,'1 ',1,   2,   2,    28.800,    16.800,     0.000,     0.000,     0.000,     0.000,   1
   148,'1 ',1,   2,   2,    75.600,    30.000,     0.000,     0.000,     0.000,     0.000,   1
   152,'1 ',1,   2,   2,    20.400,    10.800,     0.000,     0.000,     0.000,     0.000,   1
   154,'1 ',1,   2,   2,    84.000,     6.000,     0.000,     0.000,     0.000,     0.000,   1
   155,'1 ',1,   2,   2,   240.000,    60.000,     0.000,     0.000,     0.000,     0.000,   1
   156,'1 ',1,   2,   2,    90.000,    60.000,     0.000,     0.000,     0.000,     0.000,   1
   157,'1 ',1,   2,   2,   148.200,    29.160,     0.000,     0.000,     0.000,     0.000,   1
   159,'1 ',1,   2,   2,    39.600,    19.800,     0.000,     0.000,     0.000,     0.000,   1
   161,'1 ',1,   2,   2,    42.000,    18.000,     0.000,     0.000,     0.000,     0.000,   1
   162,'1 ',1,   2,   2,   102.000,    28.800,     0.000,     0.000,     0.000,     0.000,   1
   163,'1 ',1,   2,   2,     0.000,     0.480,     0.000,     0.000,     0.000,     0.000,   1
   167,'1 ',1,   2,   2,   359.880,   114.840,     0.000,     0.000,     0.000,     0.000,   1
   170,'1 ',1,   2,   2,   578.160,   246.000,     0.000,     0.000,     0.000,     0.000,   1
   171,'1 ',1,   2,   2,   916.320,   349.320,     0.000,     0.000,     0.000,     0.000,   1
   172,'1 ',1,   2,   2,    31.800,     0.000,     0.000,     0.000,     0.000,     0.000,   1
   173,'1 ',1,   2,   2,   196.200,    51.600,     0.000,     0.000,     0.000,     0.000,   1
   175,'1 ',1,   2,   2,   211.200,    99.600,     0.000,     0.000,     0.000,     0.000,   1
   176,'1 ',1,   2,   2,     6.000,     4.800,     0.000,     0.000,     0.000,     0.000,   1
   177,'1 ',1,   2,   2,    33.600,    14.400,     0.000,     0.000,     0.000,     0.000,   1
   178,'1 ',1,   2,   2,   512.880,   208.320,     0.000,     0.000,     0.000,     0.000,   1
   179,'1 ',1,   2,   2,    88.800,    34.800,     0.000,     0.000,     0.000,     0.000,   1
   180,'1 ',1,   2,   2,    83.400,    59.160,     0.000,     0.000,     0.000,     0.000,   1
   181,'1 ',1,   2,   2,    88.080,     0.000,     0.000,     0.000,     0.000,     0.000,   1
   182,'1 ',1,   2,   2,   288.840,   106.800,     0.000,     0.000,     0.000,     0.000,   1
   183,'1 ',1,   2,   2,    48.000,     4.800,     0.000,     0.000,     0.000,     0.000,   1
   184,'1 ',1,   2,   2,   164.160,    19.920,     0.000,     0.000,     0.000,     0.000,   1
   186,'1 ',1,   2,   2,    71.760,    29.160,     0.000,     0.000,     0.000,     0.000,   1
   187,'1 ',1,   2,   2,    71.760,    29.160,     0.000,     0.000,     0.000,     0.000,   1
   188,'1 ',1,   2,   2,   219.120,    52.320,     0.000,     0.000,     0.000,     0.000,   1
   189,'1 ',1,   3,   3,     8.400,     2.400,     0.000,     0.000,     0.000,     0.000,   1
   191,'1 ',1,   3,   3,   586.800,    63.600,     0.000,     0.000,     0.000,     0.000,   1
   192,'1 ',1,   3,   3,   960.000,    86.400,     0.000,     0.000,     0.000,     0.000,   1
   196,'1 ',1,   3,   3,    12.000,     3.600,     0.000,     0.000,     0.000,     0.000,   1
   197,'1 ',1,   3,   3,    51.600,    16.800,     0.000,     0.000,     0.000,     0.000,   1
   198,'1 ',1,   3,   3,    76.800,    25.200,     0.000,     0.000,     0.000,     0.000,   1
   199,'1 ',1,   3,   3,    42.000,    14.400,     0.000,     0.000,     0.000,     0.000,   1
   200,'1 ',1,   3,   3,    32.400,    14.400,     0.000,     0.000,     0.000,     0.000,   1
   201,'1 ',1,   1,   1,    49.200,    16.800,     0.000,     0.000,     0.000,     0.000,   1
   202,'1 ',1,   3,   3,    45.600,    15.600,     0.000,     0.000,     0.000,     0.000,   1
   203,'1 ',1,   3,   3,    50.400,    16.800,     0.000,     0.000,     0.000,     0.000,   1
   204,'1 ',1,   3,   3,    86.400,    28.800,     0.000,     0.000,     0.000,     0.000,   1
   205,'1 ',1,   3,   3,     0.000,    -6.000,     0.000,     0.000,     0.000,     0.000,   1
   206,'1 ',1,   3,   3,    14.400,     2.400,     0.000,     0.000,     0.000,     0.000,   1
   207,'1 ',1,   1,   1,   -25.200,   -17.040,     0.000,     0.000,     0.000,     0.000,   1
   208,'1 ',1,   3,   3,     8.400,     2.400,     0.000,     0.000,     0.000,     0.000,   1
   209,'1 ',1,   3,   3,    45.600,    15.600,     0.000,     0.000,     0.000,     0.000,   1
   211,'1 ',1,   3,   3,   115.200,     8.400,     0.000,     0.000,     0.000,     0.000,   1
   214,'1 ',1,   3,   3,    26.400,    19.200,     0.000,     0.000,     0.000,     0.000,   1
   215,'1 ',1,   3,   3,    56.400,    31.200,     0.000,     0.000,     0.000,     0.000,   1
   216,'1 ',1,   3,   3,   211.200,   126.000,     0.000,     0.000,     0.000,     0.000,   1
   217,'1 ',1,   3,   3,   120.000,    90.000,     0.000,     0.000,     0.000,     0.000,   1
   218,'1 ',1,   3,   3,   157.200,   115.200,     0.000,     0.000,     0.000,     0.000,   1
   220,'1 ',1,   3,   3,   342.000,   120.000,     0.000,     0.000,     0.000,     0.000,   1
   221,'1 ',1,   3,   3,   205.200,    84.000,     0.000,     0.000,     0.000,     0.000,   1
   222,'1 ',1,   3,   3,   393.600,   225.600,     0.000,     0.000,     0.000,     0.000,   1
   223,'1 ',1,   3,   3,   513.600,   278.400,     0.000,     0.000,     0.000,     0.000,   1
   224,'1 ',1,   3,   3,   207.600,   118.800,     0.000,     0.000,     0.000,     0.000,   1
   225,'1 ',1,   3,   3,   492.000,    48.000,     0.000,     0.000,     0.000,     0.000,   1
   227,'1 ',1,   3,   3,   645.600,   442.800,     0.000,     0.000,     0.000,     0.000,   1
   228,'1 ',1,   3,   3,   267.600,   177.600,     0.000,     0.000,     0.000,     0.000,   1
   229,'1 ',1,   3,   3,   115.200,    55.200,     0.000,     0.000,     0.000,     0.000,   1
   231,'1 ',1,   3,   3,   190.800,   128.400,     0.000,     0.000,     0.000,     0.000,   1
   232,'1 ',1,   3,   3,   537.600,   171.600,     0.000,     0.000,     0.000,     0.000,   1
   233,'1 ',1,   3,   3,   484.800,   254.400,     0.000,     0.000,     0.000,     0.000,   1
   234,'1 ',1,   3,   3,   686.400,   292.800,     0.000,     0.000,     0.000,     0.000,   1
   235,'1 ',1,   3,   3,   322.800,   188.400,     0.000,     0.000,     0.000,     0.000,   1
   238,'1 ',1,   3,   3,   306.000,   178.800,     0.000,     0.000,     0.000,     0.000,   1
   243,'1 ',1,   3,   3,     9.600,     3.600,     0.000,     0.000,     0.000,     0.000,   1
   245,'1 ',1,   3,   3,    73.200,    36.000,     0.000,     0.000,     0.000,     0.000,   1
   246,'1 ',1,   3,   3,    92.400,    39.600,     0.000,     0.000,     0.000,     0.000,   1
   247,'1 ',1,   3,   3,    73.200,    36.000,     0.000,     0.000,     0.000,     0.000,   1
   248,'1 ',1,   3,   3,    34.800,    16.800,     0.000,     0.000,     0.000,     0.000,   1
   249,'1 ',1,   3,   3,    34.800,    16.800,     0.000,     0.000,     0.000,     0.000,   1
   250,'1 ',1,   3,   3,   -27.600,   -20.400,     0.000,     0.000,     0.000,     0.000,   1
   281,'1 ',1,   3,   3,   -39.720,   -35.280,     0.000,     0.000,     0.000,     0.000,   1
   319,'1 ',1,   1,   1,   138.960,   -28.800,     0.000,     0.000,     0.000,     0.000,   1
   320,'1 ',1,   1,   1,     2.880,   -15.120,     0.000,     0.000,     0.000,     0.000,   1
   322,'1 ',1,   1,   1,     2.880,    -4.680,     0.000,     0.000,     0.000,     0.000,   1
   323,'1 ',1,   1,   1,   -17.880,    31.800,     0.000,     0.000,     0.000,     0.000,   1
   324,'1 ',1,   1,   1,    29.640,    -1.440,     0.000,     0.000,     0.000,     0.000,   1
   526,'1 ',1,   1,   1,   174.360,   -41.880,     0.000,     0.000,     0.000,     0.000,   1
   528,'1 ',1,   1,   1,    33.720,   -24.600,     0.000,     0.000,     0.000,     0.000,   1
   531,'1 ',1,   1,   1,    16.800,     3.000,     0.000,     0.000,     0.000,     0.000,   1
   552,'1 ',1,   1,   1,   -13.320,    -1.680,     0.000,     0.000,     0.000,     0.000,   1
   562,'1 ',1,   1,   1,    60.600,    20.880,     0.000,     0.000,     0.000,     0.000,   1
   609,'1 ',1,   1,   1,    35.520,     0.720,     0.000,     0.000,     0.000,     0.000,   1
   664,'1 ',1,   3,   3,  -136.440,    92.040,     0.000,     0.000,     0.000,     0.000,   1
  1190,'1 ',1,   1,   1,   120.372,    35.004,     0.000,     0.000,     0.000,     0.000,   1
  1200,'1 ',1,   1,   1,  -120.000,    41.004,     0.000,     0.000,     0.000,     0.000,   1
  9003,'1 ',1,   1,   9,     3.252,     1.128,     0.000,     0.000,     0.000,     0.000,   1
  9004,'1 ',1,   1,   9,     1.032,     0.336,     0.000,     0.000,     0.000,     0.000,   1
  9021,'1 ',1,   1,   9,     5.700,     1.872,     0.000,     0.000,     0.000,     0.000,   1
  9022,'1 ',1,   1,   9,     1.836,     0.636,     0.000,     0.000,     0.000,     0.000,   1
  9024,'1 ',1,   1,   9,     1.620,     0.564,     0.000,     0.000,     0.000,     0.000,   1
  9025,'1 ',1,   1,   9,     0.540,     0.192,     0.000,     0.000,     0.000,     0.000,   1
  9026,'1 ',1,   1,   9,     0.540,     0.192,     0.000,     0.000,     0.000,     0.000,   1
  9031,'1 ',1,   1,   9,     2.208,     0.768,     0.000,     0.000,     0.000,     0.000,   1
  9032,'1 ',1,   1,   9,     1.668,     0.576,     0.000,     0.000,     0.000,     0.000,   1
  9033,'1 ',1,   1,   9,     2.268,     0.780,     0.000,     0.000,     0.000,     0.000,   1
  9034,'1 ',1,   1,   9,     1.860,     0.648,     0.000,     0.000,     0.000,     0.000,   1
  9035,'1 ',1,   1,   9,     1.992,     0.696,     0.000,     0.000,     0.000,     0.000,   1
  9036,'1 ',1,   1,   9,     3.636,     1.200,     0.000,     0.000,     0.000,     0.000,   1
  9037,'1 ',1,   1,   9,     2.232,     0.768,     0.000,     0.000,     0.000,     0.000,   1
  9038,'1 ',1,   1,   9,     3.096,     1.068,     0.000,     0.000,     0.000,     0.000,   1
  9041,'1 ',1,   1,   9,     1.212,     0.420,     0.000,     0.000,     0.000,     0.000,   1
  9042,'1 ',1,   1,   9,     0.972,     0.336,     0.000,     0.000,     0.000,     0.000,   1
  9043,'1 ',1,   1,   9,     1.920,     0.624,     0.000,     0.000,     0.000,     0.000,   1
  9052,'1 ',1,   1,   9,    36.000,    27.600,     0.000,     0.000,     0.000,     0.000,   1
  9071,'1 ',1,   1,   9,     1.224,     0.420,     0.000,     0.000,     0.000,     0.000,   1
  9072,'1 ',1,   1,   9,     1.224,     0.420,     0.000,     0.000,     0.000,     0.000,   1
  9121,'1 ',1,   1,   9,     4.560,     1.500,     0.000,     0.000,     0.000,     0.000,   1
  9533,'1 ',1,   1,   9,     1.428,     0.492,     0.000,     0.000,     0.000,     0.000,   1
 0 /End of Load data, Begin Generator data
 10000,'1 ',    -6.000,    84.291,    92.720,   -10.000,1.01530,     0,   101.405,   0.00140,   0.12000,   0.00000,   0.00000,1.00000,1,  100.0,  9999.000, -9999.000,   1,1.0000
 10001,'1 ',    -6.000,    44.704,    49.175,   -20.000,1.02050,     0,    54.126,   0.00140,   0.12000,   0.00000,   0.00000,1.00000,1,  100.0,  9999.000, -9999.000,   1,1.0000
 10002,'1 ',   -12.000,   131.603,   144.764,   -20.000,1.00100,     0,   158.579,   0.00140,   0.12000,   0.00000,   0.00000,1.00000,1,  100.0,  9999.000, -9999.000,   1,1.0000
 10003,'1 ',     0.000,    74.544,    81.999,   -25.000,0.95830,     0,    89.453,   0.00140,   0.12000,   0.00000,   0.00000,1.00000,1,  100.0,  9999.000, -9999.000,   1,1.0000
 10004,'1 ',     0.000,   143.701,   158.071,    12.000,0.96320,     0,   172.441,   0.00140,   0.12000,   0.00000,   0.00000,1.00000,1,  100.0,  9999.000, -9999.000,   1,1.0000
 10005,'1 ',   453.750,   161.898,   240.000,  -240.000,1.02500,     0,   835.000,   0.00190,   0.33900,   0.00000,   0.00000,1.00000,1,  100.0,  9999.000, -9999.000,   1,1.0000
 10006,'1 ',   187.550,    57.121,    96.000,   -11.000,1.05200,     0,   270.000,   0.00160,   0.18500,   0.00000,   0.00000,1.00000,1,  100.0,  9999.000, -9999.000,   1,1.0000
 10007,'1 ',   350.900,    50.468,   153.000,  -153.000,1.05200,     0,   410.000,   0.00190,   0.22840,   0.00000,   0.00000,1.00000,1,  100.0,  9999.000, -9999.000,   1,1.0000
 10008,'1 ',    82.280,     0.274,    56.000,   -30.000,1.00000,     0,   125.000,   0.00400,   0.13400,   0.00000,   0.00000,1.00000,1,  100.0,  9999.000, -9999.000,   1,1.0000
 10009,'1 ',   141.570,    63.026,    77.000,   -24.000,0.99000,     0,   270.000,   0.00160,   0.18500,   0.00000,   0.00000,1.00000,1,  100.0,  9999.000, -9999.000,   1,1.0000
 10010,'1 ',  2335.300,  1713.055,  2200.000,  -500.000,1.04350,     0,  2911.000,   0.00100,   0.19300,   0.00000,   0.00000,1.00000,1,  100.0,  9999.000, -9999.000,   1,1.0000
 10011,'1 ',   290.400,   289.061,   317.966,   -60.000,1.02330,     0,   410.000,   0.00190,   0.22840,   0.00000,   0.00000,1.00000,1,  100.0,  9999.000, -9999.000,   1,1.0000
 10012,'1 ',     0.000,   536.954,   590.648,   -25.000,1.01030,     0,   644.343,   0.00140,   0.12000,   0.00000,   0.00000,1.00000,1,  100.0,  9999.000, -9999.000,   1,1.0000
 10013,'1 ', -1110.036,   518.074,   569.882,  -125.000,1.05500,     0,  1469.978,   0.00100,   0.19300,   0.00000,   0.00000,1.00000,1,  100.0,  9999.000, -9999.000,   1,1.0000
 10014,'1 ',   340.010,   109.348,   120.283,   -50.000,1.05100,     0,   410.000,   0.00190,   0.22840,   0.00000,   0.00000,1.00000,1,  100.0,  9999.000, -9999.000,   1,1.0000
 10015,'1 ',   842.160,   236.084,   300.000,  -100.000,1.04350,     0,   911.000,   0.00100,   0.19300,   0.00000,   0.00000,1.00000,1,  100.0,  9999.000, -9999.000,   1,1.0000
 10016,'1 ',   101.640,    74.739,    82.213,   -15.000,1.05280,     0,   151.393,   0.00400,   0.13400,   0.00000,   0.00000,1.00000,1,  100.0,  9999.000, -9999.000,   1,1.0000
 10017,'1 ',   262.570,   -46.040,   100.000,   -50.000,1.05280,     0,   410.000,   0.00190,   0.22840,   0.00000,   0.00000,1.00000,1,  100.0,  9999.000, -9999.000,   1,1.0000
 10018,'1 ',   124.630,    61.225,    67.348,   -25.000,1.07350,     0,   270.000,   0.00160,   0.18500,   0.00000,   0.00000,1.00000,1,  100.0,  9999.000, -9999.000,   1,1.0000
 10019,'1 ',   450.120,   -23.168,   175.000,   -50.000,1.05350,     0,   835.000,   0.00190,   0.33900,   0.00000,   0.00000,1.00000,1,  100.0,  9999.000, -9999.000,   1,1.0000
 10020,'1 ',   261.360,     3.658,    90.000,   -50.000,1.04350,     0,   410.000,   0.00190,   0.22840,   0.00000,   0.00000,1.00000,1,  100.0,  9999.000, -9999.000,   1,1.0000
 10021,'1 ',     0.000,    96.327,   105.959,   -10.000,0.96300,     0,   115.592,   0.00140,   0.12000,   0.00000,   0.00000,1.00000,1,  100.0,  9999.000, -9999.000,   1,1.0000
 10022,'1 ',   248.050,   186.225,   204.847,   -40.000,0.92900,     0,   410.000,   0.00190,   0.22840,   0.00000,   0.00000,1.00000,1,  100.0,  9999.000, -9999.000,   1,1.0000
 10023,'1 ',     0.000,   344.123,   378.535,   -50.000,0.98290,     0,   412.947,   0.00140,   0.12000,   0.00000,   0.00000,1.00000,1,  100.0,  9999.000, -9999.000,   1,1.0000
 10024,'1 ',   275.880,    53.844,    90.000,   -45.000,1.05220,     0,   410.000,   0.00190,   0.22840,   0.00000,   0.00000,1.00000,1,  100.0,  9999.000, -9999.000,   1,1.0000
 10025,'1 ',   101.640,    80.345,    88.379,   -15.000,1.00770,     0,   270.000,   0.00160,   0.18500,   0.00000,   0.00000,1.00000,1,  100.0,  9999.000, -9999.000,   1,1.0000
 10026,'1 ',   242.000,    63.867,    80.000,   -50.000,1.05220,     0,   410.000,   0.00190,   0.22840,   0.00000,   0.00000,1.00000,1,  100.0,  9999.000, -9999.000,   1,1.0000
 10027,'1 ',  1452.000,   391.023,   400.000,  -100.000,1.06500,     0,  1911.000,   0.00100,   0.19300,   0.00000,   0.00000,1.00000,1,  100.0,  9999.000, -9999.000,   1,1.0000
 10028,'1 ',  1452.000,   479.198,   527.118,  -100.000,1.06500,     0,  1911.000,   0.00100,   0.19300,   0.00000,   0.00000,1.00000,1,  100.0,  9999.000, -9999.000,   1,1.0000
 10029,'1 ',   574.750,   225.843,   300.000,  -300.000,1.05510,     0,   835.000,   0.00190,   0.33900,   0.00000,   0.00000,1.00000,1,  100.0,  9999.000, -9999.000,   1,1.0000
 10030,'1 ',  2387.330,  1103.587,  1213.942, -1000.000,1.04350,     0,  2911.000,   0.00100,   0.19300,   0.00000,   0.00000,1.00000,1,  100.0,  9999.000, -9999.000,   1,1.0000
 10031,'1 ',   513.040,   151.198,   260.000,  -260.000,1.01500,     0,   835.000,   0.00190,   0.33900,   0.00000,   0.00000,1.00000,1,  100.0,  9999.000, -9999.000,   1,1.0000
 10032,'1 ',   329.120,    55.748,   150.000,  -150.000,1.01000,     0,   512.000,   0.00400,   0.20000,   0.00000,   0.00000,1.00000,1,  100.0,  9999.000, -9999.000,   1,1.0000
 10033,'1 ',   121.000,   115.238,   126.762,   -60.000,1.00800,     0,   270.000,   0.00160,   0.18500,   0.00000,   0.00000,1.00000,1,  100.0,  9999.000, -9999.000,   1,1.0000
 10034,'1 ',   544.500,   306.603,   320.000,  -320.000,1.00000,     0,   835.000,   0.00190,   0.33900,   0.00000,   0.00000,1.00000,1,  100.0,  9999.000, -9999.000,   1,1.0000
 10035,'1 ',   302.500,   192.581,   300.000,  -300.000,1.05000,     0,   410.000,   0.00190,   0.22840,   0.00000,   0.00000,1.00000,1,  100.0,  9999.000, -9999.000,   1,1.0000
 10036,'1 ',   366.630,   344.175,   378.592,  -300.000,1.00000,     0,   512.000,   0.00400,   0.20000,   0.00000,   0.00000,1.00000,1,  100.0,  9999.000, -9999.000,   1,1.0000
 10037,'1 ',   417.450,    74.514,   250.000,  -250.000,1.04000,     0,   835.000,   0.00190,   0.33900,   0.00000,   0.00000,1.00000,1,  100.0,  9999.000, -9999.000,   1,1.0000
 10038,'1 ',   363.000,   190.203,   500.000,  -500.000,1.00000,     0,   512.000,   0.00400,   0.20000,   0.00000,   0.00000,1.00000,1,  100.0,  9999.000, -9999.000,   1,1.0000
 10039,'1 ',   726.000,   354.657,   390.122,  -300.000,1.01650,     0,   911.000,   0.00100,   0.19300,   0.00000,   0.00000,1.00000,1,  100.0,  9999.000, -9999.000,   1,1.0000
 10040,'1 ',   302.500,   277.151,   304.867,  -200.000,1.01000,     0,   492.321,   0.00190,   0.22840,   0.00000,   0.00000,1.00000,1,  100.0,  9999.000, -9999.000,   1,1.0000
 10041,'1 ',   665.500,    76.273,   400.000,  -400.000,1.00000,     0,   911.000,   0.00100,   0.19300,   0.00000,   0.00000,1.00000,1,  100.0,  9999.000, -9999.000,   1,1.0000
 10042,'1 ',   695.484,     7.834,   600.000,  -600.000,1.05000,     0,   911.000,   0.00100,   0.19300,   0.00000,   0.00000,1.00000,1,  100.0,  9999.000, -9999.000,   1,1.0000
 10043,'1 ',   205.700,    99.584,   100.000,    40.000,0.99300,     0,   410.000,   0.00190,   0.22840,   0.00000,   0.00000,1.00000,1,  100.0,  9999.000, -9999.000,   1,1.0000
 10044,'1 ',   101.640,    62.123,    80.000,    40.000,1.01000,     0,   270.000,   0.00160,   0.18500,   0.00000,   0.00000,1.00000,1,  100.0,  9999.000, -9999.000,   1,1.0000
 10045,'1 ',   565.070,   193.116,   210.000,  -210.000,1.05070,     0,   835.000,   0.00190,   0.33900,   0.00000,   0.00000,1.00000,1,  100.0,  9999.000, -9999.000,   1,1.0000
 10046,'1 ',   753.830,   125.909,   280.000,  -280.000,1.05070,     0,   911.000,   0.00100,   0.19300,   0.00000,   0.00000,1.00000,1,  100.0,  9999.000, -9999.000,   1,1.0000
 10047,'1 ',  1464.100,   546.748,   601.423,  -420.000,1.03230,     0,  1875.428,   0.00100,   0.19300,   0.00000,   0.00000,1.00000,1,  100.0,  9999.000, -9999.000,   1,1.0000
 10048,'1 ',   283.140,    68.987,   100.000,  -100.000,1.01450,     0,   410.000,   0.00190,   0.22840,   0.00000,   0.00000,1.00000,1,  100.0,  9999.000, -9999.000,   1,1.0000
 10049,'1 ',   450.120,   232.238,   255.462,  -224.000,1.05070,     0,   835.000,   0.00190,   0.33900,   0.00000,   0.00000,1.00000,1,  100.0,  9999.000, -9999.000,   1,1.0000
 10050,'1 ',   399.300,   450.382,   495.420,     0.000,1.05070,     0,   835.000,   0.00190,   0.33900,   0.00000,   0.00000,1.00000,1,  100.0,  9999.000, -9999.000,   1,1.0000
 10051,'1 ',   223.850,    16.024,   120.000,     0.000,1.05070,     0,   410.000,   0.00190,   0.22840,   0.00000,   0.00000,1.00000,1,  100.0,  9999.000, -9999.000,   1,1.0000
 10052,'1 ',   496.100,   131.129,   224.000,  -224.000,1.02900,     0,   835.000,   0.00190,   0.33900,   0.00000,   0.00000,1.00000,1,  100.0,  9999.000, -9999.000,   1,1.0000
 10053,'1 ',   605.000,   231.604,   254.764,  -200.000,1.05000,     0,   835.000,   0.00190,   0.33900,   0.00000,   0.00000,1.00000,1,  100.0,  9999.000, -9999.000,   1,1.0000
 10054,'1 ',    44.770,    56.086,    61.695,     0.000,1.01450,     0,   125.000,   0.00400,   0.13400,   0.00000,   0.00000,1.00000,1,  100.0,  9999.000, -9999.000,   1,1.0000
 10055,'1 ',   560.726,    86.079,    94.686,     0.000,1.05070,     0,   835.000,   0.00190,   0.33900,   0.00000,   0.00000,1.00000,1,  100.0,  9999.000, -9999.000,   1,1.0000
 10056,'1 ',    54.450,    35.694,    39.264,     0.000,0.99670,     0,   125.000,   0.00400,   0.13400,   0.00000,   0.00000,1.00000,1,  100.0,  9999.000, -9999.000,   1,1.0000
 10057,'1 ',   199.650,   109.351,   120.286,   -90.000,1.02120,     0,   410.000,   0.00190,   0.22840,   0.00000,   0.00000,1.00000,1,  100.0,  9999.000, -9999.000,   1,1.0000
 10058,'1 ',   484.000,   180.630,   198.693,  -150.000,1.01450,     0,   835.000,   0.00190,   0.33900,   0.00000,   0.00000,1.00000,1,  100.0,  9999.000, -9999.000,   1,1.0000
 10059,'1 ',   484.000,   188.145,   206.960,     0.000,1.00170,     0,   835.000,   0.00190,   0.33900,   0.00000,   0.00000,1.00000,1,  100.0,  9999.000, -9999.000,   1,1.0000
 10060,'1 ',   140.360,   111.794,   122.973,     0.000,0.98930,     0,   270.000,   0.00160,   0.18500,   0.00000,   0.00000,1.00000,1,  100.0,  9999.000, -9999.000,   1,1.0000
 10061,'1 ',  1563.320,   479.096,   600.000,  -100.000,1.05070,     0,  1962.102,   0.00100,   0.19300,   0.00000,   0.00000,1.00000,1,  100.0,  9999.000, -9999.000,   1,1.0000
 10062,'1 ',   847.000,   365.692,   402.261,  -125.000,1.05070,     0,  1107.087,   0.00100,   0.19300,   0.00000,   0.00000,1.00000,1,  100.0,  9999.000, -9999.000,   1,1.0000
 10063,'1 ',   669.130,   262.386,   300.000,  -200.000,1.01450,     0,   911.000,   0.00100,   0.19300,   0.00000,   0.00000,1.00000,1,  100.0,  9999.000, -9999.000,   1,1.0000
 10064,'1 ',    -5.040,     5.920,     6.512,    -2.000,0.99450,     0,    25.000,   0.00140,   0.12000,   0.00000,   0.00000,1.00000,1,  100.0,  9999.000, -9999.000,   1,1.0000
 10065,'1 ',   -42.972,    21.476,    23.624,   -17.350,1.00000,     0,   125.000,   0.00400,   0.13400,   0.00000,   0.00000,1.00000,1,  100.0,  9999.000, -9999.000,   1,1.0000
 10066,'1 ',   -31.776,    16.855,    18.540,   -12.800,1.00000,     0,   125.000,   0.00400,   0.13400,   0.00000,   0.00000,1.00000,1,  100.0,  9999.000, -9999.000,   1,1.0000
 10067,'1 ',    60.500,    31.994,    38.000,   -38.000,1.00000,     0,   125.000,   0.00400,   0.13400,   0.00000,   0.00000,1.00000,1,  100.0,  9999.000, -9999.000,   1,1.0000
 10068,'1 ',     9.680,     5.918,     6.000,    -6.000,1.00000,     0,    25.000,   0.00140,   0.12000,   0.00000,   0.00000,1.00000,1,  100.0,  9999.000, -9999.000,   1,1.0000
 0 /End of Generator data, Begin Branch data
     1,      5,'1 ',   0.00100,   0.00600,   0.00000,    0.00,    0.00,    0.00,  0.00000,  0.00000,  0.00000,  0.00000,1,   0.00,   1,1.0000
     2,      6,'1 ',   0.00100,   0.00900,   0.00000,    0.00,    0.00,    0.00,  0.00000,  0.00000,  0.00000,  0.00000,1,   0.00,   1,1.0000
     2,      8,'1 ',   0.00600,   0.02700,   0.05400,    0.00,    0.00,    0.00,  0.00000,  0.00000,  0.00000,  0.00000,1,   0.00,   1,1.0000
     3,      7,'1 ',   0.00000,   0.00300,   0.00000,    0.00,    0.00,    0.00,  0.00000,  0.00000,  0.00000,  0.00000,1,   0.00,   1,1.0000
     3,     19,'1 ',   0.00800,   0.06900,   0.13900,    0.00,    0.00,    0.00,  0.00000,  0.00000,  0.00000,  0.00000,1,   0.00,   1,1.0000
     3,    150,'1 ',   0.00100,   0.00700,   0.00000,    0.00,    0.00,    0.00,  0.00000,  0.00000,  0.00000,  0.00000,1,   0.00,   1,1.0000
     4,     16,'1 ',   0.00200,   0.01900,   1.12700,    0.00,    0.00,    0.00,  0.00000,  0.00000,  0.00000,  0.00000,1,   0.00,   1,1.0000
     5,      9,'1 ',   0.00600,   0.02900,   0.01800,    0.00,    0.00,    0.00,  0.00000,  0.00000,  0.00000,  0.00000,1,   0.00,   1,1.0000
     7,     12,'1 ',   0.00100,   0.00900,   0.07000,    0.00,    0.00,    0.00,  0.00000,  0.00000,  0.00000,  0.00000,1,   0.00,   1,1.0000
     7,    131,'1 ',   0.00100,   0.00700,   0.01400,    0.00,    0.00,    0.00,  0.00000,  0.00000,  0.00000,  0.00000,1,   0.00,   1,1.0000
     8,     11,'1 ',   0.01300,   0.05950,   0.03300,    0.00,    0.00,    0.00,  0.00000,  0.00000,  0.00000,  0.00000,1,   0.00,   1,1.0000
     8,     14,'1 ',   0.01300,   0.04200,   0.08100,    0.00,    0.00,    0.00,  0.00000,  0.00000,  0.00000,  0.00000,1,   0.00,   1,1.0000
     9,     11,'1 ',   0.00600,   0.02700,   0.01300,    0.00,    0.00,    0.00,  0.00000,  0.00000,  0.00000,  0.00000,1,   0.00,   1,1.0000
    11,     13,'1 ',   0.00800,   0.03400,   0.01800,    0.00,    0.00,    0.00,  0.00000,  0.00000,  0.00000,  0.00000,1,   0.00,   1,1.0000
    12,     21,'1 ',   0.00200,   0.01500,   0.11800,    0.00,    0.00,    0.00,  0.00000,  0.00000,  0.00000,  0.00000,1,   0.00,   1,1.0000
    13,     20,'1 ',   0.00600,   0.03400,   0.01600,    0.00,    0.00,    0.00,  0.00000,  0.00000,  0.00000,  0.00000,1,   0.00,   1,1.0000
    14,     15,'1 ',   0.01400,   0.04200,   0.09700,    0.00,    0.00,    0.00,  0.00000,  0.00000,  0.00000,  0.00000,1,   0.00,   1,1.0000
    15,     37,'1 ',   0.06500,   0.24800,   0.12100,    0.00,    0.00,    0.00,  0.00000,  0.00000,  0.00000,  0.00000,1,   0.00,   1,1.0000
    15,     89,'1 ',   0.09900,   0.24800,   0.03500,    0.00,    0.00,    0.00,  0.00000,  0.00000,  0.00000,  0.00000,1,   0.00,   1,1.0000
    15,     90,'1 ',   0.09600,   0.36300,   0.04800,    0.00,    0.00,    0.00,  0.00000,  0.00000,  0.00000,  0.00000,1,   0.00,   1,1.0000
    16,     42,'1 ',   0.00200,   0.02200,   1.28000,    0.00,    0.00,    0.00,  0.00000,  0.00000,  0.00000,  0.00000,1,   0.00,   1,1.0000
    19,     21,'1 ',   0.00200,   0.01800,   0.03600,    0.00,    0.00,    0.00,  0.00000,  0.00000,  0.00000,  0.00000,1,   0.00,   1,1.0000
    19,     87,'1 ',   0.01300,   0.08000,   0.15100,    0.00,    0.00,    0.00,  0.00000,  0.00000,  0.00000,  0.00000,1,   0.00,   1,1.0000
    20,     22,'1 ',   0.01600,   0.03300,   0.01500,    0.00,    0.00,    0.00,  0.00000,  0.00000,  0.00000,  0.00000,1,   0.00,   1,1.0000
    20,     27,'1 ',   0.06900,   0.18600,   0.09800,    0.00,    0.00,    0.00,  0.00000,  0.00000,  0.00000,  0.00000,1,   0.00,   1,1.0000
    21,     24,'1 ',   0.00400,   0.03400,   0.28000,    0.00,    0.00,    0.00,  0.00000,  0.00000,  0.00000,  0.00000,1,   0.00,   1,1.0000
    22,     23,'1 ',   0.05200,   0.11100,   0.05000,    0.00,    0.00,    0.00,  0.00000,  0.00000,  0.00000,  0.00000,1,   0.00,   1,1.0000
    23,     25,'1 ',   0.01900,   0.03900,   0.01800,    0.00,    0.00,    0.00,  0.00000,  0.00000,  0.00000,  0.00000,1,   0.00,   1,1.0000
    24,    319,'1 ',   0.00700,   0.06800,   0.13400,    0.00,    0.00,    0.00,  0.00000,  0.00000,  0.00000,  0.00000,1,   0.00,   1,1.0000
    25,     26,'1 ',   0.03600,   0.07100,   0.03400,    0.00,    0.00,    0.00,  0.00000,  0.00000,  0.00000,  0.00000,1,   0.00,   1,1.0000
    26,     27,'1 ',   0.04500,   0.12000,   0.06500,    0.00,    0.00,    0.00,  0.00000,  0.00000,  0.00000,  0.00000,1,   0.00,   1,1.0000
    26,    320,'1 ',   0.04300,   0.13000,   0.01400,    0.00,    0.00,    0.00,  0.00000,  0.00000,  0.00000,  0.00000,1,   0.00,   1,1.0000
    33,     34,'1 ',   0.00000,   0.06300,   0.00000,    0.00,    0.00,    0.00,  0.00000,  0.00000,  0.00000,  0.00000,1,   0.00,   1,1.0000
    33,     38,'1 ',   0.00250,   0.01200,   0.01300,    0.00,    0.00,    0.00,  0.00000,  0.00000,  0.00000,  0.00000,1,   0.00,   1,1.0000
    33,     40,'1 ',   0.00600,   0.02900,   0.02000,    0.00,    0.00,    0.00,  0.00000,  0.00000,  0.00000,  0.00000,1,   0.00,   1,1.0000
    33,     41,'1 ',   0.00700,   0.04300,   0.02600,    0.00,    0.00,    0.00,  0.00000,  0.00000,  0.00000,  0.00000,1,   0.00,   1,1.0000
    34,     42,'1 ',   0.00100,   0.00800,   0.04200,    0.00,    0.00,    0.00,  0.00000,  0.00000,  0.00000,  0.00000,1,   0.00,   1,1.0000
    35,     72,'1 ',   0.01200,   0.06000,   0.00800,    0.00,    0.00,    0.00,  0.00000,  0.00000,  0.00000,  0.00000,1,   0.00,   1,1.0000
    35,     76,'1 ',   0.00600,   0.01400,   0.00200,    0.00,    0.00,    0.00,  0.00000,  0.00000,  0.00000,  0.00000,1,   0.00,   1,1.0000
    35,     77,'1 ',   0.01000,   0.02900,   0.00300,    0.00,    0.00,    0.00,  0.00000,  0.00000,  0.00000,  0.00000,1,   0.00,   1,1.0000
    36,     88,'1 ',   0.00400,   0.02700,   0.04300,    0.00,    0.00,    0.00,  0.00000,  0.00000,  0.00000,  0.00000,1,   0.00,   1,1.0000
    37,     38,'1 ',   0.00800,   0.04700,   0.00800,    0.00,    0.00,    0.00,  0.00000,  0.00000,  0.00000,  0.00000,1,   0.00,   1,1.0000
    37,     40,'1 ',   0.02200,   0.06400,   0.00700,    0.00,    0.00,    0.00,  0.00000,  0.00000,  0.00000,  0.00000,1,   0.00,   1,1.0000
    37,     41,'1 ',   0.01000,   0.03600,   0.02000,    0.00,    0.00,    0.00,  0.00000,  0.00000,  0.00000,  0.00000,1,   0.00,   1,1.0000
    37,     49,'1 ',   0.01700,   0.08100,   0.04800,    0.00,    0.00,    0.00,  0.00000,  0.00000,  0.00000,  0.00000,1,   0.00,   1,1.0000
    37,     89,'1 ',   0.10200,   0.25400,   0.03300,    0.00,    0.00,    0.00,  0.00000,  0.00000,  0.00000,  0.00000,1,   0.00,   1,1.0000
    37,     90,'1 ',   0.04700,   0.12700,   0.01600,    0.00,    0.00,    0.00,  0.00000,  0.00000,  0.00000,  0.00000,1,   0.00,   1,1.0000
    38,     41,'1 ',   0.00800,   0.03700,   0.02000,    0.00,    0.00,    0.00,  0.00000,  0.00000,  0.00000,  0.00000,1,   0.00,   1,1.0000
    38,     43,'1 ',   0.03200,   0.08700,   0.04000,    0.00,    0.00,    0.00,  0.00000,  0.00000,  0.00000,  0.00000,1,   0.00,   1,1.0000
    39,     42,'1 ',   0.00060,   0.00640,   0.40400,    0.00,    0.00,    0.00,  0.00000,  0.00000,  0.00000,  0.00000,1,   0.00,   1,1.0000
    40,     48,'1 ',   0.02600,   0.15400,   0.02200,    0.00,    0.00,    0.00,  0.00000,  0.00000,  0.00000,  0.00000,1,   0.00,   1,1.0000
    41,     42,'1 ',   0.00000,   0.02900,   0.00000,    0.00,    0.00,    0.00,  0.00000,  0.00000,  0.00000,  0.00000,1,   0.00,   1,1.0000
    41,     49,'1 ',   0.06500,   0.19100,   0.02000,    0.00,    0.00,    0.00,  0.00000,  0.00000,  0.00000,  0.00000,1,   0.00,   1,1.0000
    41,     51,'1 ',   0.03100,   0.08900,   0.03600,    0.00,    0.00,    0.00,  0.00000,  0.00000,  0.00000,  0.00000,1,   0.00,   1,1.0000
    42,     46,'1 ',   0.00200,   0.01400,   0.80600,    0.00,    0.00,    0.00,  0.00000,  0.00000,  0.00000,  0.00000,1,   0.00,   1,1.0000
    43,     44,'1 ',   0.02600,   0.07200,   0.03500,    0.00,    0.00,    0.00,  0.00000,  0.00000,  0.00000,  0.00000,1,   0.00,   1,1.0000
    43,     48,'1 ',   0.09500,   0.26200,   0.03200,    0.00,    0.00,    0.00,  0.00000,  0.00000,  0.00000,  0.00000,1,   0.00,   1,1.0000
    43,     53,'1 ',   0.01300,   0.03900,   0.01600,    0.00,    0.00,    0.00,  0.00000,  0.00000,  0.00000,  0.00000,1,   0.00,   1,1.0000
    44,     47,'1 ',   0.02700,   0.08400,   0.03900,    0.00,    0.00,    0.00,  0.00000,  0.00000,  0.00000,  0.00000,1,   0.00,   1,1.0000
    44,     54,'1 ',   0.02800,   0.08400,   0.03700,    0.00,    0.00,    0.00,  0.00000,  0.00000,  0.00000,  0.00000,1,   0.00,   1,1.0000
    45,     60,'1 ',   0.00700,   0.04100,   0.31200,    0.00,    0.00,    0.00,  0.00000,  0.00000,  0.00000,  0.00000,1,   0.00,   1,1.0000
    45,     74,'1 ',   0.00900,   0.05400,   0.41100,    0.00,    0.00,    0.00,  0.00000,  0.00000,  0.00000,  0.00000,1,   0.00,   1,1.0000
    46,     81,'1 ',   0.00500,   0.04200,   0.69000,    0.00,    0.00,    0.00,  0.00000,  0.00000,  0.00000,  0.00000,1,   0.00,   1,1.0000
    47,     73,'1 ',   0.05200,   0.14500,   0.07300,    0.00,    0.00,    0.00,  0.00000,  0.00000,  0.00000,  0.00000,1,   0.00,   1,1.0000
    47,    113,'1 ',   0.04300,   0.11800,   0.01300,    0.00,    0.00,    0.00,  0.00000,  0.00000,  0.00000,  0.00000,1,   0.00,   1,1.0000
    48,    107,'1 ',   0.02500,   0.06200,   0.00700,    0.00,    0.00,    0.00,  0.00000,  0.00000,  0.00000,  0.00000,1,   0.00,   1,1.0000
    49,     51,'1 ',   0.03100,   0.09400,   0.04300,    0.00,    0.00,    0.00,  0.00000,  0.00000,  0.00000,  0.00000,1,   0.00,   1,1.0000
    51,     52,'1 ',   0.03700,   0.10900,   0.04900,    0.00,    0.00,    0.00,  0.00000,  0.00000,  0.00000,  0.00000,1,   0.00,   1,1.0000
    52,     55,'1 ',   0.02700,   0.08000,   0.03600,    0.00,    0.00,    0.00,  0.00000,  0.00000,  0.00000,  0.00000,1,   0.00,   1,1.0000
    53,     54,'1 ',   0.02500,   0.07300,   0.03500,    0.00,    0.00,    0.00,  0.00000,  0.00000,  0.00000,  0.00000,1,   0.00,   1,1.0000
    54,     55,'1 ',   0.03500,   0.10300,   0.04700,    0.00,    0.00,    0.00,  0.00000,  0.00000,  0.00000,  0.00000,1,   0.00,   1,1.0000
    55,     57,'1 ',   0.06500,   0.16900,   0.08200,    0.00,    0.00,    0.00,  0.00000,  0.00000,  0.00000,  0.00000,1,   0.00,   1,1.0000
    57,     58,'1 ',   0.04600,   0.08000,   0.03600,    0.00,    0.00,    0.00,  0.00000,  0.00000,  0.00000,  0.00000,1,   0.00,   1,1.0000
    57,     63,'1 ',   0.15900,   0.53700,   0.07100,    0.00,    0.00,    0.00,  0.00000,  0.00000,  0.00000,  0.00000,1,   0.00,   1,1.0000
    58,     59,'1 ',   0.00900,   0.02600,   0.00500,    0.00,    0.00,    0.00,  0.00000,  0.00000,  0.00000,  0.00000,1,   0.00,   1,1.0000
    59,     61,'1 ',   0.00200,   0.01300,   0.01500,    0.00,    0.00,    0.00,  0.00000,  0.00000,  0.00000,  0.00000,1,   0.00,   1,1.0000
    60,     62,'1 ',   0.00900,   0.06500,   0.48500,    0.00,    0.00,    0.00,  0.00000,  0.00000,  0.00000,  0.00000,1,   0.00,   1,1.0000
    62,     64,'1 ',   0.01600,   0.10500,   0.20300,    0.00,    0.00,    0.00,  0.00000,  0.00000,  0.00000,  0.00000,1,   0.00,   1,1.0000
...